<?xml version="1.0" encoding="UTF-8"?>

<!-- generated on 2024-11-09 17:44:17 by Eclipse SUMO netconvert Version 1.12.0
<configuration xmlns:xsi="http://www.w3.org/2001/XMLSchema-instance" xsi:noNamespaceSchemaLocation="http://sumo.dlr.de/xsd/netconvertConfiguration.xsd">

    <input>
        <osm-files value="map.osm"/>
    </input>

    <output>
        <output-file value="net.net.xml"/>
    </output>

    <projection>
        <proj.utm value="true"/>
    </projection>

    <report>
        <aggregate-warnings value="5"/>
    </report>

</configuration>
-->

<net version="1.9" junctionCornerDetail="5" limitTurnSpeed="5.50" xmlns:xsi="http://www.w3.org/2001/XMLSchema-instance" xsi:noNamespaceSchemaLocation="http://sumo.dlr.de/xsd/net_file.xsd">

    <location netOffset="-775483.37,-1431431.56" convBoundary="0.00,0.00,580.41,533.77" origBoundary="77.534210,12.931706,77.555060,12.940843" projParameter="+proj=utm +zone=43 +ellps=WGS84 +datum=WGS84 +units=m +no_defs"/>

    <type id="highway.bridleway" priority="1" numLanes="1" speed="2.78" allow="pedestrian" oneway="1" width="2.00"/>
    <type id="highway.bus_guideway" priority="1" numLanes="1" speed="27.78" allow="bus" oneway="1"/>
    <type id="highway.cycleway" priority="1" numLanes="1" speed="8.33" allow="bicycle" oneway="0" width="1.00"/>
    <type id="highway.footway" priority="1" numLanes="1" speed="2.78" allow="pedestrian" oneway="1" width="2.00"/>
    <type id="highway.ford" priority="1" numLanes="1" speed="2.78" allow="army" oneway="0"/>
    <type id="highway.living_street" priority="2" numLanes="1" speed="2.78" disallow="tram rail_urban rail rail_electric rail_fast ship" oneway="0"/>
    <type id="highway.motorway" priority="14" numLanes="2" speed="39.44" allow="private emergency authority army vip passenger hov taxi bus coach delivery truck trailer motorcycle evehicle custom1 custom2" oneway="1"/>
    <type id="highway.motorway_link" priority="9" numLanes="1" speed="22.22" allow="private emergency authority army vip passenger hov taxi bus coach delivery truck trailer motorcycle evehicle custom1 custom2" oneway="1"/>
    <type id="highway.path" priority="1" numLanes="1" speed="2.78" allow="pedestrian bicycle" oneway="0" width="2.00"/>
    <type id="highway.pedestrian" priority="1" numLanes="1" speed="2.78" allow="pedestrian" oneway="1" width="2.00"/>
    <type id="highway.primary" priority="12" numLanes="2" speed="27.78" disallow="tram rail_urban rail rail_electric rail_fast ship" oneway="0"/>
    <type id="highway.primary_link" priority="7" numLanes="1" speed="22.22" disallow="tram rail_urban rail rail_electric rail_fast ship" oneway="0"/>
    <type id="highway.raceway" priority="15" numLanes="2" speed="83.33" allow="vip" oneway="0"/>
    <type id="highway.residential" priority="3" numLanes="1" speed="13.89" disallow="tram rail_urban rail rail_electric rail_fast ship" oneway="0"/>
    <type id="highway.secondary" priority="11" numLanes="1" speed="27.78" disallow="tram rail_urban rail rail_electric rail_fast ship" oneway="0"/>
    <type id="highway.secondary_link" priority="6" numLanes="1" speed="22.22" disallow="tram rail_urban rail rail_electric rail_fast ship" oneway="0"/>
    <type id="highway.service" priority="1" numLanes="1" speed="5.56" allow="pedestrian delivery bicycle" oneway="0"/>
    <type id="highway.stairs" priority="1" numLanes="1" speed="1.39" allow="pedestrian" oneway="1" width="2.00"/>
    <type id="highway.step" priority="1" numLanes="1" speed="1.39" allow="pedestrian" oneway="1" width="2.00"/>
    <type id="highway.steps" priority="1" numLanes="1" speed="1.39" allow="pedestrian" oneway="1" width="2.00"/>
    <type id="highway.tertiary" priority="10" numLanes="1" speed="22.22" disallow="tram rail_urban rail rail_electric rail_fast ship" oneway="0"/>
    <type id="highway.tertiary_link" priority="5" numLanes="1" speed="22.22" disallow="tram rail_urban rail rail_electric rail_fast ship" oneway="0"/>
    <type id="highway.track" priority="1" numLanes="1" speed="5.56" allow="pedestrian motorcycle moped bicycle" oneway="0"/>
    <type id="highway.trunk" priority="13" numLanes="2" speed="27.78" disallow="pedestrian bicycle tram rail_urban rail rail_electric rail_fast ship" oneway="0"/>
    <type id="highway.trunk_link" priority="8" numLanes="1" speed="22.22" disallow="pedestrian bicycle tram rail_urban rail rail_electric rail_fast ship" oneway="0"/>
    <type id="highway.unclassified" priority="4" numLanes="1" speed="13.89" disallow="tram rail_urban rail rail_electric rail_fast ship" oneway="0"/>
    <type id="highway.unsurfaced" priority="1" numLanes="1" speed="8.33" disallow="tram rail_urban rail rail_electric rail_fast ship" oneway="0"/>
    <type id="railway.highspeed" priority="21" numLanes="1" speed="69.44" allow="rail_fast" oneway="1"/>
    <type id="railway.light_rail" priority="19" numLanes="1" speed="27.78" allow="rail_urban" oneway="1"/>
    <type id="railway.preserved" priority="16" numLanes="1" speed="27.78" allow="rail" oneway="1"/>
    <type id="railway.rail" priority="20" numLanes="1" speed="44.44" allow="rail" oneway="1"/>
    <type id="railway.subway" priority="18" numLanes="1" speed="27.78" allow="rail_urban" oneway="1"/>
    <type id="railway.tram" priority="17" numLanes="1" speed="13.89" allow="tram" oneway="1"/>

    <edge id=":10236661552_0" function="internal">
        <lane id=":10236661552_0_0" index="0" disallow="tram rail_urban rail rail_electric rail_fast ship" speed="13.89" length="13.12" shape="373.73,192.64 372.75,179.55"/>
    </edge>
    <edge id=":10236661552_1" function="internal">
        <lane id=":10236661552_1_0" index="0" disallow="tram rail_urban rail rail_electric rail_fast ship" speed="8.66" length="3.81" shape="373.73,192.64 374.02,189.00 374.09,188.85"/>
    </edge>
    <edge id=":10236661552_2" function="internal">
        <lane id=":10236661552_2_0" index="0" disallow="tram rail_urban rail rail_electric rail_fast ship" speed="3.65" length="1.44" shape="373.73,192.64 374.44,191.38"/>
    </edge>
    <edge id=":10236661552_9" function="internal">
        <lane id=":10236661552_9_0" index="0" disallow="tram rail_urban rail rail_electric rail_fast ship" speed="8.66" length="10.71" shape="374.09,188.85 375.50,186.07 378.16,183.85 382.00,182.35"/>
    </edge>
    <edge id=":10236661552_10" function="internal">
        <lane id=":10236661552_10_0" index="0" disallow="tram rail_urban rail rail_electric rail_fast ship" speed="3.65" length="3.23" shape="374.44,191.38 375.20,190.92 376.03,191.26 376.92,192.40"/>
    </edge>
    <edge id=":10236661552_3" function="internal">
        <lane id=":10236661552_3_0" index="0" disallow="tram rail_urban rail rail_electric rail_fast ship" speed="7.29" length="10.01" shape="382.81,185.45 380.08,186.49 378.19,188.00 377.14,189.97 376.92,192.40"/>
    </edge>
    <edge id=":10236661552_4" function="internal">
        <lane id=":10236661552_4_0" index="0" disallow="tram rail_urban rail rail_electric rail_fast ship" speed="7.46" length="13.88" shape="382.81,185.45 378.64,186.00 375.57,185.19 373.61,183.05 372.75,179.55"/>
    </edge>
    <edge id=":10236661552_5" function="internal">
        <lane id=":10236661552_5_0" index="0" disallow="tram rail_urban rail rail_electric rail_fast ship" speed="3.65" length="4.67" shape="382.81,185.45 381.44,184.97 380.86,184.30 381.04,183.43 382.00,182.35"/>
    </edge>
    <edge id=":10236661552_6" function="internal">
        <lane id=":10236661552_6_0" index="0" disallow="tram rail_urban rail rail_electric rail_fast ship" speed="5.84" length="8.03" shape="375.94,179.31 376.45,181.20 377.62,182.33 379.48,182.72 382.00,182.35"/>
    </edge>
    <edge id=":10236661552_7" function="internal">
        <lane id=":10236661552_7_0" index="0" disallow="tram rail_urban rail rail_electric rail_fast ship" speed="13.89" length="13.12" shape="375.94,179.31 376.92,192.40"/>
    </edge>
    <edge id=":10236661552_8" function="internal">
        <lane id=":10236661552_8_0" index="0" disallow="tram rail_urban rail rail_electric rail_fast ship" speed="3.65" length="1.44" shape="375.94,179.31 375.23,180.57"/>
    </edge>
    <edge id=":10236661552_11" function="internal">
        <lane id=":10236661552_11_0" index="0" disallow="tram rail_urban rail rail_electric rail_fast ship" speed="3.65" length="3.23" shape="375.23,180.57 374.46,181.03 373.64,180.69 372.75,179.55"/>
    </edge>
    <edge id=":10939590908_0" function="internal">
        <lane id=":10939590908_0_0" index="0" disallow="tram rail_urban rail rail_electric rail_fast ship" speed="5.63" length="9.73" shape="245.11,237.97 244.42,235.16 243.13,233.90 241.23,234.21 238.73,236.07"/>
    </edge>
    <edge id=":10939590908_1" function="internal">
        <lane id=":10939590908_1_0" index="0" disallow="tram rail_urban rail rail_electric rail_fast ship" speed="9.23" length="16.03" shape="245.11,237.97 244.08,233.92 241.98,230.88 238.81,228.84 234.55,227.80"/>
    </edge>
    <edge id=":10939590908_2" function="internal">
        <lane id=":10939590908_2_0" index="0" disallow="tram rail_urban rail rail_electric rail_fast ship" speed="13.89" length="18.55" shape="245.11,237.97 242.73,219.57"/>
    </edge>
    <edge id=":10939590908_3" function="internal">
        <lane id=":10939590908_3_0" index="0" disallow="tram rail_urban rail rail_electric rail_fast ship" speed="3.65" length="1.44" shape="245.11,237.97 245.78,236.69"/>
    </edge>
    <edge id=":10939590908_16" function="internal">
        <lane id=":10939590908_16_0" index="0" disallow="tram rail_urban rail rail_electric rail_fast ship" speed="3.65" length="3.23" shape="245.78,236.69 246.53,236.21 247.37,236.52 248.29,237.63"/>
    </edge>
    <edge id=":10939590908_4" function="internal">
        <lane id=":10939590908_4_0" index="0" disallow="tram rail_urban rail rail_electric rail_fast ship" speed="13.89" length="18.71" shape="245.89,219.07 248.29,237.63"/>
    </edge>
    <edge id=":10939590908_5" function="internal">
        <lane id=":10939590908_5_0" index="0" disallow="tram rail_urban rail rail_electric rail_fast ship" speed="12.37" length="4.89" shape="245.89,219.07 245.97,223.48 245.85,223.95"/>
    </edge>
    <edge id=":10939590908_6" function="internal">
        <lane id=":10939590908_6_0" index="0" disallow="tram rail_urban rail rail_electric rail_fast ship" speed="8.08" length="4.23" shape="245.89,219.07 245.79,223.30"/>
    </edge>
    <edge id=":10939590908_7" function="internal">
        <lane id=":10939590908_7_0" index="0" disallow="tram rail_urban rail rail_electric rail_fast ship" speed="3.65" length="1.44" shape="245.89,219.07 245.29,220.38"/>
    </edge>
    <edge id=":10939590908_17" function="internal">
        <lane id=":10939590908_17_0" index="0" disallow="tram rail_urban rail rail_electric rail_fast ship" speed="12.37" length="14.31" shape="245.85,223.95 244.81,227.79 242.39,231.98 238.73,236.07"/>
    </edge>
    <edge id=":10939590908_18" function="internal">
        <lane id=":10939590908_18_0" index="0" disallow="tram rail_urban rail rail_electric rail_fast ship" speed="8.08" length="13.20" shape="245.79,223.30 245.78,223.43 243.86,226.34 240.11,227.80 234.55,227.80"/>
    </edge>
    <edge id=":10939590908_19" function="internal">
        <lane id=":10939590908_19_0" index="0" disallow="tram rail_urban rail rail_electric rail_fast ship" speed="3.65" length="3.23" shape="245.29,220.38 244.56,220.90 243.71,220.63 242.73,219.57"/>
    </edge>
    <edge id=":10939590908_8" function="internal">
        <lane id=":10939590908_8_0" index="0" disallow="tram rail_urban rail rail_electric rail_fast ship" speed="6.60" length="11.22" shape="234.91,224.62 238.69,224.67 241.25,223.85 242.60,222.15 242.73,219.57"/>
    </edge>
    <edge id=":10939590908_9" function="internal">
        <lane id=":10939590908_9_0" index="0" disallow="tram rail_urban rail rail_electric rail_fast ship" speed="10.35" length="20.41" shape="234.91,224.62 240.29,225.94 244.32,228.55 246.99,232.44 248.29,237.63"/>
    </edge>
    <edge id=":10939590908_10" function="internal">
        <lane id=":10939590908_10_0" index="0" disallow="tram rail_urban rail rail_electric rail_fast ship" speed="7.39" length="18.37" shape="234.91,224.62 240.51,225.93 243.01,228.28 242.42,231.66 238.73,236.07"/>
    </edge>
    <edge id=":10939590908_11" function="internal">
        <lane id=":10939590908_11_0" index="0" disallow="tram rail_urban rail rail_electric rail_fast ship" speed="3.65" length="4.67" shape="234.91,224.62 236.01,225.55 236.32,226.39 235.83,227.14 234.55,227.80"/>
    </edge>
    <edge id=":10939590908_12" function="internal">
        <lane id=":10939590908_12_0" index="0" disallow="tram rail_urban rail rail_electric rail_fast ship" speed="5.52" length="9.53" shape="236.54,233.74 238.45,231.45 238.76,229.70 237.46,228.48 234.55,227.80"/>
    </edge>
    <edge id=":10939590908_13" function="internal">
        <lane id=":10939590908_13_0" index="0" disallow="tram rail_urban rail rail_electric rail_fast ship" speed="11.36" length="16.09" shape="236.54,233.74 239.68,230.26 241.75,226.74 242.77,223.18 242.73,219.57"/>
    </edge>
    <edge id=":10939590908_14" function="internal">
        <lane id=":10939590908_14_0" index="0" disallow="tram rail_urban rail rail_electric rail_fast ship" speed="7.44" length="18.13" shape="236.54,233.74 241.13,230.35 244.62,229.86 247.01,232.29 248.29,237.63"/>
    </edge>
    <edge id=":10939590908_15" function="internal">
        <lane id=":10939590908_15_0" index="0" disallow="tram rail_urban rail rail_electric rail_fast ship" speed="3.65" length="4.67" shape="236.54,233.74 237.96,233.50 238.80,233.81 239.06,234.67 238.73,236.07"/>
    </edge>
    <edge id=":1119895045_0" function="internal">
        <lane id=":1119895045_0_0" index="0" disallow="tram rail_urban rail rail_electric rail_fast ship" speed="6.80" length="9.56" shape="298.40,367.02 297.78,364.49 296.51,362.73 294.58,361.73 291.98,361.49"/>
    </edge>
    <edge id=":1119895045_1" function="internal">
        <lane id=":1119895045_1_0" index="0" disallow="tram rail_urban rail rail_electric rail_fast ship" speed="13.89" length="14.73" shape="298.40,367.02 296.94,352.36"/>
    </edge>
    <edge id=":1119895045_2" function="internal">
        <lane id=":1119895045_2_0" index="0" disallow="tram rail_urban rail rail_electric rail_fast ship" speed="7.91" length="14.39" shape="298.40,367.02 298.58,363.05 299.99,360.16 302.65,358.33 306.55,357.58"/>
    </edge>
    <edge id=":1119895045_3" function="internal">
        <lane id=":1119895045_3_0" index="0" disallow="tram rail_urban rail rail_electric rail_fast ship" speed="3.65" length="4.67" shape="298.40,367.02 299.08,365.75 299.84,365.27 300.67,365.59 301.59,366.70"/>
    </edge>
    <edge id=":1119895045_4" function="internal">
        <lane id=":1119895045_4_0" index="0" disallow="tram rail_urban rail rail_electric rail_fast ship" speed="6.40" length="9.04" shape="306.70,360.77 304.25,361.25 302.59,362.39 301.70,364.21 301.59,366.70"/>
    </edge>
    <edge id=":1119895045_5" function="internal">
        <lane id=":1119895045_5_0" index="0" disallow="tram rail_urban rail rail_electric rail_fast ship" speed="13.89" length="14.74" shape="306.70,360.77 291.98,361.49"/>
    </edge>
    <edge id=":1119895045_6" function="internal">
        <lane id=":1119895045_6_0" index="0" disallow="tram rail_urban rail rail_electric rail_fast ship" speed="8.24" length="4.14" shape="306.70,360.77 302.76,360.41 302.60,360.33"/>
    </edge>
    <edge id=":1119895045_7" function="internal">
        <lane id=":1119895045_7_0" index="0" disallow="tram rail_urban rail rail_electric rail_fast ship" speed="3.65" length="1.44" shape="306.70,360.77 305.46,360.03"/>
    </edge>
    <edge id=":1119895045_16" function="internal">
        <lane id=":1119895045_16_0" index="0" disallow="tram rail_urban rail rail_electric rail_fast ship" speed="8.24" length="10.40" shape="302.60,360.33 299.82,358.89 297.88,356.20 296.94,352.36"/>
    </edge>
    <edge id=":1119895045_17" function="internal">
        <lane id=":1119895045_17_0" index="0" disallow="tram rail_urban rail rail_electric rail_fast ship" speed="3.65" length="3.23" shape="305.46,360.03 305.03,359.25 305.39,358.44 306.55,357.58"/>
    </edge>
    <edge id=":1119895045_8" function="internal">
        <lane id=":1119895045_8_0" index="0" disallow="tram rail_urban rail rail_electric rail_fast ship" speed="6.80" length="9.56" shape="300.13,352.04 300.75,354.57 302.02,356.34 303.96,357.34 306.55,357.58"/>
    </edge>
    <edge id=":1119895045_9" function="internal">
        <lane id=":1119895045_9_0" index="0" disallow="tram rail_urban rail rail_electric rail_fast ship" speed="13.89" length="14.74" shape="300.13,352.04 301.59,366.70"/>
    </edge>
    <edge id=":1119895045_10" function="internal">
        <lane id=":1119895045_10_0" index="0" disallow="tram rail_urban rail rail_electric rail_fast ship" speed="7.91" length="14.39" shape="300.13,352.04 299.96,356.01 298.54,358.91 295.88,360.73 291.98,361.49"/>
    </edge>
    <edge id=":1119895045_11" function="internal">
        <lane id=":1119895045_11_0" index="0" disallow="tram rail_urban rail rail_electric rail_fast ship" speed="3.65" length="4.67" shape="300.13,352.04 299.45,353.31 298.69,353.79 297.86,353.47 296.94,352.36"/>
    </edge>
    <edge id=":1119895045_12" function="internal">
        <lane id=":1119895045_12_0" index="0" disallow="tram rail_urban rail rail_electric rail_fast ship" speed="6.40" length="9.04" shape="291.83,358.29 294.28,357.82 295.95,356.67 296.83,354.85 296.94,352.36"/>
    </edge>
    <edge id=":1119895045_13" function="internal">
        <lane id=":1119895045_13_0" index="0" disallow="tram rail_urban rail rail_electric rail_fast ship" speed="13.89" length="14.74" shape="291.83,358.29 306.55,357.58"/>
    </edge>
    <edge id=":1119895045_14" function="internal">
        <lane id=":1119895045_14_0" index="0" disallow="tram rail_urban rail rail_electric rail_fast ship" speed="8.24" length="4.14" shape="291.83,358.29 295.77,358.65 295.93,358.74"/>
    </edge>
    <edge id=":1119895045_15" function="internal">
        <lane id=":1119895045_15_0" index="0" disallow="tram rail_urban rail rail_electric rail_fast ship" speed="3.65" length="1.44" shape="291.83,358.29 293.07,359.03"/>
    </edge>
    <edge id=":1119895045_18" function="internal">
        <lane id=":1119895045_18_0" index="0" disallow="tram rail_urban rail rail_electric rail_fast ship" speed="8.24" length="10.40" shape="295.93,358.74 298.71,360.18 300.65,362.86 301.59,366.70"/>
    </edge>
    <edge id=":1119895045_19" function="internal">
        <lane id=":1119895045_19_0" index="0" disallow="tram rail_urban rail rail_electric rail_fast ship" speed="3.65" length="3.23" shape="293.07,359.03 293.50,359.81 293.14,360.63 291.98,361.49"/>
    </edge>
    <edge id=":1661800561_0" function="internal">
        <lane id=":1661800561_0_0" index="0" disallow="tram rail_urban rail rail_electric rail_fast ship" speed="3.65" length="4.67" shape="80.64,232.35 79.38,231.66 78.91,230.89 79.24,230.06 80.37,229.16"/>
    </edge>
    <edge id=":2220792105_0" function="internal">
        <lane id=":2220792105_0_0" index="0" disallow="tram rail_urban rail rail_electric rail_fast ship" speed="3.65" length="4.67" shape="332.53,208.71 333.24,207.45 334.01,207.00 334.83,207.34 335.72,208.47"/>
    </edge>
    <edge id=":2220792127_0" function="internal">
        <lane id=":2220792127_0_0" index="0" disallow="tram rail_urban rail rail_electric rail_fast ship" speed="13.89" length="14.38" shape="352.20,358.60 337.84,359.27"/>
    </edge>
    <edge id=":2220792127_1" function="internal">
        <lane id=":2220792127_1_0" index="0" disallow="tram rail_urban rail rail_electric rail_fast ship" speed="8.09" length="4.01" shape="352.20,358.60 348.38,358.22 348.24,358.14"/>
    </edge>
    <edge id=":2220792127_2" function="internal">
        <lane id=":2220792127_2_0" index="0" disallow="tram rail_urban rail rail_electric rail_fast ship" speed="3.65" length="1.44" shape="352.20,358.60 350.97,357.86"/>
    </edge>
    <edge id=":2220792127_9" function="internal">
        <lane id=":2220792127_9_0" index="0" disallow="tram rail_urban rail rail_electric rail_fast ship" speed="8.09" length="10.22" shape="348.24,358.14 345.55,356.69 343.73,354.01 342.90,350.18"/>
    </edge>
    <edge id=":2220792127_10" function="internal">
        <lane id=":2220792127_10_0" index="0" disallow="tram rail_urban rail rail_electric rail_fast ship" speed="3.65" length="3.23" shape="350.97,357.86 350.54,357.08 350.90,356.26 352.06,355.41"/>
    </edge>
    <edge id=":2220792127_3" function="internal">
        <lane id=":2220792127_3_0" index="0" disallow="tram rail_urban rail rail_electric rail_fast ship" speed="6.62" length="9.17" shape="346.10,349.94 346.63,352.42 347.80,354.16 349.61,355.16 352.06,355.41"/>
    </edge>
    <edge id=":2220792127_4" function="internal">
        <lane id=":2220792127_4_0" index="0" disallow="tram rail_urban rail rail_electric rail_fast ship" speed="7.96" length="14.29" shape="346.10,349.94 345.82,353.86 344.36,356.72 341.69,358.52 337.84,359.27"/>
    </edge>
    <edge id=":2220792127_5" function="internal">
        <lane id=":2220792127_5_0" index="0" disallow="tram rail_urban rail rail_electric rail_fast ship" speed="3.65" length="4.67" shape="346.10,349.94 345.39,351.20 344.62,351.65 343.79,351.31 342.90,350.18"/>
    </edge>
    <edge id=":2220792127_6" function="internal">
        <lane id=":2220792127_6_0" index="0" disallow="tram rail_urban rail rail_electric rail_fast ship" speed="6.45" length="9.03" shape="337.68,356.07 340.12,355.60 341.80,354.46 342.73,352.65 342.90,350.18"/>
    </edge>
    <edge id=":2220792127_7" function="internal">
        <lane id=":2220792127_7_0" index="0" disallow="tram rail_urban rail rail_electric rail_fast ship" speed="13.89" length="14.40" shape="337.68,356.07 352.06,355.41"/>
    </edge>
    <edge id=":2220792127_8" function="internal">
        <lane id=":2220792127_8_0" index="0" disallow="tram rail_urban rail rail_electric rail_fast ship" speed="3.65" length="1.44" shape="337.68,356.07 338.92,356.81"/>
    </edge>
    <edge id=":2220792127_11" function="internal">
        <lane id=":2220792127_11_0" index="0" disallow="tram rail_urban rail rail_electric rail_fast ship" speed="3.65" length="3.23" shape="338.92,356.81 339.36,357.59 339.00,358.41 337.84,359.27"/>
    </edge>
    <edge id=":2220792155_0" function="internal">
        <lane id=":2220792155_0_0" index="0" disallow="tram rail_urban rail rail_electric rail_fast ship" speed="3.65" length="4.67" shape="402.47,533.65 401.76,534.91 401.00,535.37 400.17,535.03 399.28,533.89"/>
    </edge>
    <edge id=":2220883168_0" function="internal">
        <lane id=":2220883168_0_0" index="0" disallow="tram rail_urban rail rail_electric rail_fast ship" speed="13.89" length="0.28" shape="121.32,325.34 121.04,325.36"/>
    </edge>
    <edge id=":2220883168_1" function="internal">
        <lane id=":2220883168_1_0" index="0" disallow="tram rail_urban rail rail_electric rail_fast ship" speed="13.89" length="0.31" shape="120.81,322.17 121.12,322.15"/>
    </edge>
    <edge id=":2421938378_0" function="internal">
        <lane id=":2421938378_0_0" index="0" disallow="tram rail_urban rail rail_electric rail_fast ship" speed="3.65" length="4.67" shape="548.30,65.81 549.68,66.22 550.30,66.87 550.15,67.75 549.24,68.87"/>
    </edge>
    <edge id=":282778163_0" function="internal">
        <lane id=":282778163_0_0" index="0" disallow="tram rail_urban rail rail_electric rail_fast ship" speed="3.65" length="4.67" shape="98.56,194.10 97.39,193.27 97.01,192.46 97.43,191.67 98.65,190.90"/>
    </edge>
    <edge id=":282778225_0" function="internal">
        <lane id=":282778225_0_0" index="0" disallow="tram rail_urban rail rail_electric rail_fast ship" speed="3.65" length="4.67" shape="27.21,266.84 25.96,266.11 25.52,265.33 25.87,264.51 27.03,263.64"/>
    </edge>
    <edge id=":3689008129_0" function="internal">
        <lane id=":3689008129_0_0" index="0" disallow="tram rail_urban rail rail_electric rail_fast ship" speed="6.04" length="9.07" shape="370.05,130.40 369.55,127.87 368.36,126.31 366.50,125.74 363.95,126.14"/>
    </edge>
    <edge id=":3689008129_1" function="internal">
        <lane id=":3689008129_1_0" index="0" disallow="tram rail_urban rail rail_electric rail_fast ship" speed="8.98" length="14.70" shape="370.05,130.40 370.30,126.17 371.53,122.82 373.75,120.36 376.95,118.77"/>
    </edge>
    <edge id=":3689008129_2" function="internal">
        <lane id=":3689008129_2_0" index="0" disallow="tram rail_urban rail rail_electric rail_fast ship" speed="3.65" length="4.67" shape="370.05,130.40 370.78,129.16 371.56,128.72 372.38,129.08 373.24,130.24"/>
    </edge>
    <edge id=":3689008129_3" function="internal">
        <lane id=":3689008129_3_0" index="0" disallow="tram rail_urban rail rail_electric rail_fast ship" speed="7.64" length="10.43" shape="377.90,121.83 375.73,122.94 374.23,124.71 373.40,127.14 373.24,130.24"/>
    </edge>
    <edge id=":3689008129_4" function="internal">
        <lane id=":3689008129_4_0" index="0" disallow="tram rail_urban rail rail_electric rail_fast ship" speed="13.89" length="14.60" shape="377.90,121.83 363.95,126.14"/>
    </edge>
    <edge id=":3689008129_5" function="internal">
        <lane id=":3689008129_5_0" index="0" disallow="tram rail_urban rail rail_electric rail_fast ship" speed="3.65" length="1.44" shape="377.90,121.83 376.51,121.42"/>
    </edge>
    <edge id=":3689008129_9" function="internal">
        <lane id=":3689008129_9_0" index="0" disallow="tram rail_urban rail rail_electric rail_fast ship" speed="3.65" length="3.23" shape="376.51,121.42 375.90,120.78 376.04,119.89 376.95,118.77"/>
    </edge>
    <edge id=":3689008129_6" function="internal">
        <lane id=":3689008129_6_0" index="0" disallow="tram rail_urban rail rail_electric rail_fast ship" speed="13.89" length="14.60" shape="363.00,123.09 376.95,118.77"/>
    </edge>
    <edge id=":3689008129_7" function="internal">
        <lane id=":3689008129_7_0" index="0" disallow="tram rail_urban rail rail_electric rail_fast ship" speed="7.63" length="4.34" shape="363.00,123.09 367.28,122.41"/>
    </edge>
    <edge id=":3689008129_8" function="internal">
        <lane id=":3689008129_8_0" index="0" disallow="tram rail_urban rail rail_electric rail_fast ship" speed="3.65" length="1.44" shape="363.00,123.09 364.38,123.50"/>
    </edge>
    <edge id=":3689008129_10" function="internal">
        <lane id=":3689008129_10_0" index="0" disallow="tram rail_urban rail rail_electric rail_fast ship" speed="7.63" length="10.89" shape="367.28,122.41 370.42,123.37 372.40,125.98 373.24,130.24"/>
    </edge>
    <edge id=":3689008129_11" function="internal">
        <lane id=":3689008129_11_0" index="0" disallow="tram rail_urban rail rail_electric rail_fast ship" speed="3.65" length="3.23" shape="364.38,123.50 365.00,124.14 364.86,125.02 363.95,126.14"/>
    </edge>
    <edge id=":503309078_0" function="internal">
        <lane id=":503309078_0_0" index="0" disallow="tram rail_urban rail rail_electric rail_fast ship" speed="3.65" length="4.67" shape="174.67,0.54 175.02,-0.86 175.64,-1.51 176.53,-1.40 177.68,-0.54"/>
    </edge>
    <edge id=":503309079_0" function="internal">
        <lane id=":503309079_0_0" index="0" disallow="tram rail_urban rail rail_electric rail_fast ship" speed="6.45" length="9.12" shape="232.31,170.01 231.43,167.68 230.00,166.22 228.02,165.65 225.51,165.94"/>
    </edge>
    <edge id=":503309079_1" function="internal">
        <lane id=":503309079_1_0" index="0" disallow="tram rail_urban rail rail_electric rail_fast ship" speed="13.89" length="14.57" shape="232.31,170.01 231.47,166.42 230.55,162.94 229.52,159.48 228.38,155.98"/>
    </edge>
    <edge id=":503309079_2" function="internal">
        <lane id=":503309079_2_0" index="0" disallow="tram rail_urban rail rail_electric rail_fast ship" speed="8.15" length="14.24" shape="232.31,170.01 231.99,166.08 232.95,162.96 235.18,160.64 238.68,159.12"/>
    </edge>
    <edge id=":503309079_3" function="internal">
        <lane id=":503309079_3_0" index="0" disallow="tram rail_urban rail rail_electric rail_fast ship" speed="3.65" length="4.67" shape="232.31,170.01 232.83,168.66 233.53,168.10 234.39,168.32 235.43,169.32"/>
    </edge>
    <edge id=":503309079_4" function="internal">
        <lane id=":503309079_4_0" index="0" disallow="tram rail_urban rail rail_electric rail_fast ship" speed="6.69" length="9.25" shape="239.52,162.21 237.26,163.19 235.83,164.71 235.22,166.75 235.43,169.32"/>
    </edge>
    <edge id=":503309079_5" function="internal">
        <lane id=":503309079_5_0" index="0" disallow="tram rail_urban rail rail_electric rail_fast ship" speed="13.89" length="14.50" shape="239.52,162.21 225.51,165.94"/>
    </edge>
    <edge id=":503309079_6" function="internal">
        <lane id=":503309079_6_0" index="0" disallow="tram rail_urban rail rail_electric rail_fast ship" speed="8.23" length="4.01" shape="239.52,162.21 235.72,162.66 235.54,162.60"/>
    </edge>
    <edge id=":503309079_7" function="internal">
        <lane id=":503309079_7_0" index="0" disallow="tram rail_urban rail rail_electric rail_fast ship" speed="3.65" length="1.44" shape="239.52,162.21 238.15,161.75"/>
    </edge>
    <edge id=":503309079_16" function="internal">
        <lane id=":503309079_16_0" index="0" disallow="tram rail_urban rail rail_electric rail_fast ship" speed="8.23" length="10.34" shape="235.54,162.60 232.60,161.77 230.16,159.54 228.38,155.98"/>
    </edge>
    <edge id=":503309079_17" function="internal">
        <lane id=":503309079_17_0" index="0" disallow="tram rail_urban rail rail_electric rail_fast ship" speed="3.65" length="3.23" shape="238.15,161.75 237.56,161.08 237.73,160.20 238.68,159.12"/>
    </edge>