<?xml version="1.0" encoding="UTF-8"?>
<!-- generated on 2024-11-11 18:34:46.438162 by randomTrips.py UNKNOWN
  options: -n myNetwork.net.xml -r myRoutes.rou.xml -e 300 -l
-->
<routes xmlns:xsi="http://www.w3.org/2001/XMLSchema-instance" xsi:noNamespaceSchemaLocation="http://sumo.dlr.de/xsd/routes_file.xsd">
</routes>
